-------------------------------------------------------
          Amber 22 SANDER                              2022
          -------------------------------------------------------

  [-O]verwriting output

File Assignments:

 Here is the input file:

A NVT simulation for common production-level simulations
 &cntrl
    imin=0,        ! No minimization
    irest=1,       ! This IS a restart of an old MD simulation
    ntx=5,         ! So our inpcrd file has velocities

    ! Temperature control
    ntt=3,         ! Langevin dynamics
    gamma_ln=1.0,  ! Friction coefficient (ps^-1)
    temp0=300,   ! Target temperature

    ! Potential energy control
    cut=9.0,       ! nonbonded cutoff, in Angstroms

    ! MD settings
    nstlim=10000, ! 2 ns total
    dt=0.001,      ! time step (ps)

    ! SHAKE
    ntc=2,         ! Constrain bonds containing hydrogen
    ntf=2,         ! Do not calculate forces of bonds containing hydrogen

    ! Control how often information is printed
    ntpr=1000,     ! Print energies every 1000 steps
    ntwx=1000,    ! Print coordinates every 50000 steps to the trajectory
    ntwr=1000,    ! Print a restart file every 10K steps (can be less frequent)
    ntxo=2,        ! Write NetCDF format
    ioutfm=1,      ! Write NetCDF format (always do this!)

    ! Wrap coordinates when printing them to the same unit cell
    iwrap=1,

    ! Restraints
    nmropt=1,      ! Turn on restraints

 /

 &wt type='DUMPFREQ', istep1=10 /
 &wt type='END' /
 DISANG=cv2.rst
 DUMPAVE=prod2.cv

 /

--------------------------------------------------------------------------------
   1.  RESOURCE   USE:
--------------------------------------------------------------------------------

 getting box info from netcdf restart file
 NATOM  =    5285 NTYPES =       9 NBONH =    5265 MBONA  =      18
 NTHETH =      50 MTHETA =      22 NPHIH =      86 MPHIA  =      48
 NHPARM =       0 NPARM  =       0 NNB   =    7186 NRES   =    1753
 NBONA  =      18 NTHETA =      22 NPHIA =      48 NUMBND =      13
 NUMANG =      21 NPTRA  =      14 NATYP =      10 NPHB   =       0
 IFBOX  =       1 NMXRS  =      10 IFCAP =       0 NEXTRA =       0
 NCOPY  =       0

     BOX TYPE: RECTILINEAR

--------------------------------------------------------------------------------
   2.  CONTROL  DATA  FOR  THE  RUN
--------------------------------------------------------------------------------

ACE

General flags:
     imin    =       0, nmropt  =       1

Nature and format of input:
     ntx     =       5, irest   =       1, ntrx    =       1

Nature and format of output:
     ntxo    =       2, ntpr    =    1000, ntrx    =       1, ntwr    =    1000
     iwrap   =       1, ntwx    =    1000, ntwv    =       0, ntwe    =       0
     ioutfm  =       1, ntwprt  =       0, idecomp =       0, rbornstat=      0

Potential function:
     ntf     =       2, ntb     =       1, igb     =       0, nsnb    =      25
     ipol    =       0, gbsa    =       0, iesp    =       0
     dielc   =   1.00000, cut     =   9.00000, intdiel =   1.00000

Frozen or restrained atoms:
     ibelly  =       0, ntr     =       0

Molecular dynamics:
     nstlim  =     10000, nscm    =      1000, nrespa  =         1
     t       =   0.00000, dt      =   0.00100, vlimit  =  20.00000

Langevin dynamics temperature regulation:
     ig      =   71277
     temp0   = 300.00000, tempi   =   0.00000, gamma_ln=   1.00000

SHAKE:
     ntc     =       2, jfastw  =       0
     tol     =   0.00001

NMR refinement options:
     iscale  =       0, noeskp  =       1, ipnlty  =       1, mxsub   =       1
     scalm   = 100.00000, pencut  =   0.10000, tausw   =   0.10000

Ewald parameters:
     verbose =       0, ew_type =       0, nbflag  =       1, use_pme =       1
     vdwmeth =       1, eedmeth =       1, netfrc  =       1
     Box X =   41.545   Box Y =   41.891   Box Z =   41.935
     Alpha =   90.000   Beta  =   90.000   Gamma =   90.000
     NFFT1 =   48       NFFT2 =   45       NFFT3 =   45
     Cutoff=    9.000   Tol   =0.100E-04
     Ewald Coefficient =  0.30768
     Interpolation order =    4

--------------------------------------------------------------------------------
   3.  ATOMIC COORDINATES AND VELOCITIES
--------------------------------------------------------------------------------

ACE
 begin time read from input coords =    30.000 ps

           Begin reading energy term weight changes/NMR restraints
 WEIGHT CHANGES:
 DUMPFREQ     10      0    0.000000    0.000000      0      0
                         ** No weight changes given **

 RESTRAINTS:
 Requested file redirections:
  DISANG    = cv2.rst
  DUMPAVE   = prod2.cv
 Restraints will be read from file: cv2.rst
Here are comments from the DISANG input file:

                          ** No restraint defined **

                  Done reading weight changes/NMR restraints

 Number of triangulated 3-point waters found:     1747

     Sum of charges from parm topology file =  -0.00000000
     Forcing neutrality...

--------------------------------------------------------------------------------
   4.  RESULTS
 NSTEP =     1000   TIME(PS) =      31.000  TEMP(K) =   296.14  PRESS =     0.0
 Etot   =    -13048.7932  EKtot   =      3116.0098  EPtot      =    -16164.8030
 BOND   =         3.0700  ANGLE   =        14.7473  DIHED      =        11.8340
 1-4 NB =         7.4049  1-4 EEL =        95.8077  VDWAALS    =      2410.3334
 EELEC  =    -18707.7643  EHBOND  =         0.0000  RESTRAINT  =         0.0000
 CMAP   =        -0.2359
 Ewald error estimate:   0.5897E-04
 ------------------------------------------------------------------------------

      A V E R A G E S   O V E R   10000 S T E P S

 NSTEP =    10000   TIME(PS) =      40.000  TEMP(K) =   298.77  PRESS =     0.0
 Etot   =    -13064.4879  EKtot   =      3143.6975  EPtot      =    -16208.1854
 BOND   =         6.0900  ANGLE   =        17.6872  DIHED      =         9.4653
 1-4 NB =         6.2045  1-4 EEL =        92.8032  VDWAALS    =      2396.2522
 EELEC  =    -18737.0991  EHBOND  =         0.0000  RESTRAINT  =         0.0000
 CMAP   =         0.4114
 Ewald error estimate:   0.1352E-03
 ------------------------------------------------------------------------------

      R M S  F L U C T U A T I O N S

 NSTEP =    10000   TIME(PS) =      40.000  TEMP(K) =     3.64  PRESS =     0.0
 Etot   =        46.2614  EKtot   =        38.2956  EPtot      =        45.1710
 BOND   =         1.9992  ANGLE   =         3.2590  DIHED      =         1.6328
 1-4 NB =         1.0315  1-4 EEL =         2.7808  VDWAALS    =        56.2317
 EELEC  =        77.7942  EHBOND  =         0.0000  RESTRAINT  =         0.0000
 CMAP   =         0.7585
 Ewald error estimate:   0.1045E-03
 ------------------------------------------------------------------------------
