-------------------------------------------------------
          Amber 22 SANDER                              2022
          -------------------------------------------------------

  [-O]verwriting output

File Assignments:

 Here is the input file:

Production
 &cntrl
  imin=0,
  ntx=5,
  irest=1,
  nstlim=50000,
  dt=0.002,
  ntf=2,
  ntc=2,
  temp0=300.0,
  ntpr=100,
  ntwx=100,
  cut=8.0,
  ntb=2,
  ntp=1,
  ntt=3,
  barostat=1,
  gamma_ln=2.0,
  ig=-1,
 /

--------------------------------------------------------------------------------
   1.  RESOURCE   USE:
--------------------------------------------------------------------------------

 getting box info from netcdf restart file
 NATOM  =    4150 NTYPES =       9 NBONH =    4140 MBONA  =       9
 NTHETH =      25 MTHETA =      11 NPHIH =      43 MPHIA  =      24
 NHPARM =       0 NPARM  =       0 NNB   =    5603 NRES   =    1379
 NBONA  =       9 NTHETA =      11 NPHIA =      24 NUMBND =      13
 NUMANG =      21 NPTRA  =      14 NATYP =      10 NPHB   =       0
 IFBOX  =       1 NMXRS  =      10 IFCAP =       0 NEXTRA =       0
 NCOPY  =       0

     BOX TYPE: RECTILINEAR
Note: ig = -1. Setting random seed to   729006 based on wallclock time in microseconds.

--------------------------------------------------------------------------------
   2.  CONTROL  DATA  FOR  THE  RUN
--------------------------------------------------------------------------------

ACE

General flags:
     imin    =       0, nmropt  =       0

Nature and format of input:
     ntx     =       5, irest   =       1, ntrx    =       1

Nature and format of output:
     ntxo    =       2, ntpr    =     100, ntrx    =       1, ntwr    =   50000
     iwrap   =       0, ntwx    =     100, ntwv    =       0, ntwe    =       0
     ioutfm  =       1, ntwprt  =       0, idecomp =       0, rbornstat=      0

Potential function:
     ntf     =       2, ntb     =       2, igb     =       0, nsnb    =      25
     ipol    =       0, gbsa    =       0, iesp    =       0
     dielc   =   1.00000, cut     =   8.00000, intdiel =   1.00000

Frozen or restrained atoms:
     ibelly  =       0, ntr     =       0

Molecular dynamics:
     nstlim  =     50000, nscm    =      1000, nrespa  =         1
     t       =   0.00000, dt      =   0.00200, vlimit  =  20.00000

Langevin dynamics temperature regulation:
     ig      =  729006
     temp0   = 300.00000, tempi   =   0.00000, gamma_ln=   2.00000

Pressure regulation:
     ntp     =       1
     pres0   =   1.00000, comp    =  44.60000, taup    =   1.00000

SHAKE:
     ntc     =       2, jfastw  =       0
     tol     =   0.00001

Ewald parameters:
     verbose =       0, ew_type =       0, nbflag  =       1, use_pme =       1
     vdwmeth =       1, eedmeth =       1, netfrc  =       1
     Box X =   38.861   Box Y =   39.115   Box Z =   39.119
     Alpha =   90.000   Beta  =   90.000   Gamma =   90.000
     NFFT1 =   40       NFFT2 =   40       NFFT3 =   40
     Cutoff=    8.000   Tol   =0.100E-04
     Ewald Coefficient =  0.34864
     Interpolation order =    4

--------------------------------------------------------------------------------
   3.  ATOMIC COORDINATES AND VELOCITIES
--------------------------------------------------------------------------------

ACE
 begin time read from input coords =    20.000 ps

 Number of triangulated 3-point waters found:     1376

     Sum of charges from parm topology file =  -0.00000000
     Forcing neutrality...

--------------------------------------------------------------------------------
   4.  RESULTS
 NSTEP =      100   TIME(PS) =      20.200  TEMP(K) =   299.54  PRESS =  -540.0
 Etot   =    -10082.5610  EKtot   =      2473.1996  EPtot      =    -12555.7607
 BOND   =         4.0080  ANGLE   =         7.8384  DIHED      =         5.3200
 1-4 NB =         2.4816  1-4 EEL =        45.1023  VDWAALS    =      1913.1339
 EELEC  =    -14533.7705  EHBOND  =         0.0000  RESTRAINT  =         0.0000
 EKCMT  =      1228.7872  VIRIAL  =      1917.9969  VOLUME     =     59107.2522
 CMAP   =         0.1256
                                                    Density    =         0.7005
 Ewald error estimate:   0.1751E-03
 ------------------------------------------------------------------------------

      A V E R A G E S   O V E R   50000 S T E P S

 NSTEP =    50000   TIME(PS) =     120.000  TEMP(K) =   299.84  PRESS =   -76.3
 Etot   =    -10646.9103  EKtot   =      2475.6870  EPtot      =    -13122.5973
 BOND   =         3.1316  ANGLE   =         9.0804  DIHED      =         4.6290
 1-4 NB =         3.0235  1-4 EEL =        46.9037  VDWAALS    =      1950.3351
 EELEC  =    -15140.3070  EHBOND  =         0.0000  RESTRAINT  =         0.0000
 EKCMT  =      1234.8100  VIRIAL  =      1317.8521  VOLUME     =     43296.5633
 CMAP   =         0.6064
                                                    Density    =         0.9610
 Ewald error estimate:   0.1468E-03
 ------------------------------------------------------------------------------

      R M S  F L U C T U A T I O N S

 NSTEP =    50000   TIME(PS) =     120.000  TEMP(K) =     4.49  PRESS =   308.9
 Etot   =       155.4858  EKtot   =        37.1124  EPtot      =       148.6384
 BOND   =         1.4433  ANGLE   =         2.3326  DIHED      =         1.0707
 1-4 NB =         0.6938  1-4 EEL =         2.1007  VDWAALS    =        52.7539
 EELEC  =       174.0169  EHBOND  =         0.0000  RESTRAINT  =         0.0000
 EKCMT  =        26.6869  VIRIAL  =       310.1629  VOLUME     =      3367.6181
 CMAP   =         0.5440
                                                    Density    =         0.0609
 Ewald error estimate:   0.1109E-03
 ------------------------------------------------------------------------------
